<configuration>
	<input>
		<net-file value="TEST1.net.xml" />
		<route-files value="trips.trips.xml" />
	</input>

	<time>
		<begin value="0" />
		<end value="1000" />
		<step-length value="0.1" />
	</time>
</configuration>