<?xml version="1.0" encoding="UTF-8"?>

<!-- generated on 2023-12-02 12:40:59 by Eclipse SUMO netedit Version 1.19.0
<configuration xmlns:xsi="http://www.w3.org/2001/XMLSchema-instance" xsi:noNamespaceSchemaLocation="http://sumo.dlr.de/xsd/neteditConfiguration.xsd">

    <input>
        <sumo-net-file value="C:\Users\drugo\Desktop\PROGETTO-IA\XML\TEST1.net.xml"/>
    </input>

    <output>
        <output-file value="C:\Users\drugo\Desktop\PROGETTO-IA\XML\TEST1.net.xml"/>
    </output>

    <processing>
        <geometry.min-radius.fix.railways value="false"/>
        <geometry.max-grade.fix value="false"/>
        <offset.disable-normalization value="true"/>
        <lefthand value="0"/>
    </processing>

    <junctions>
        <no-turnarounds value="true"/>
        <junctions.corner-detail value="5"/>
        <junctions.limit-turn-speed value="5.50"/>
        <rectangular-lane-cut value="0"/>
    </junctions>

    <pedestrian>
        <walkingareas value="0"/>
    </pedestrian>

</configuration>
-->

<net version="1.16" junctionCornerDetail="5" limitTurnSpeed="5.50" xmlns:xsi="http://www.w3.org/2001/XMLSchema-instance" xsi:noNamespaceSchemaLocation="http://sumo.dlr.de/xsd/net_file.xsd">

    <location netOffset="0.00,0.00" convBoundary="-100.00,-100.00,200.10,200.10" origBoundary="-10000000000.00,-10000000000.00,10000000000.00,10000000000.00" projParameter="!"/>

    <edge id=":J0_0" function="internal">
        <lane id=":J0_0_0" index="0" speed="8.96" length="18.06" shape="-93.60,204.80 -98.50,204.10 -102.00,202.00 -104.10,198.50 -104.80,193.60"/>
        <lane id=":J0_0_1" index="1" speed="7.66" length="12.90" shape="-93.60,201.60 -97.10,201.10 -99.60,199.60 -101.10,197.10 -101.60,193.60"/>
    </edge>
    <edge id=":J0_2" function="internal">
        <lane id=":J0_2_0" index="0" speed="3.90" length="2.58" shape="-95.20,193.60 -95.10,194.30 -94.80,194.80 -94.30,195.10 -93.60,195.20"/>
        <lane id=":J0_2_1" index="1" speed="6.08" length="7.74" shape="-98.40,193.60 -98.10,195.70 -97.20,197.20 -95.70,198.10 -93.60,198.40"/>
    </edge>
    <edge id=":J1_0" function="internal">
        <lane id=":J1_0_0" index="0" speed="13.89" length="20.81" shape="-104.80,10.40 -104.79,-10.41"/>
        <lane id=":J1_0_1" index="1" speed="13.89" length="20.81" shape="-101.60,10.40 -101.59,-10.41"/>
    </edge>
    <edge id=":J1_2" function="internal">
        <lane id=":J1_2_0" index="0" speed="9.26" length="5.03" shape="-101.60,10.40 -100.89,5.42"/>
    </edge>
    <edge id=":J1_8" function="internal">
        <lane id=":J1_8_0" index="0" speed="9.26" length="14.33" shape="-100.89,5.42 -100.85,5.15 -98.60,1.40 -94.85,-0.85 -89.59,-1.60"/>
    </edge>
    <edge id=":J1_3" function="internal">
        <lane id=":J1_3_0" index="0" speed="6.51" length="9.04" shape="-89.59,4.80 -92.05,5.15 -93.80,6.20 -94.85,7.95 -95.20,10.40"/>
    </edge>
    <edge id=":J1_4" function="internal">
        <lane id=":J1_4_0" index="0" speed="9.26" length="19.36" shape="-89.59,1.60 -94.85,0.85 -98.60,-1.40 -100.84,-5.15 -101.59,-10.41"/>
    </edge>
    <edge id=":J1_5" function="internal">
        <lane id=":J1_5_0" index="0" speed="6.51" length="9.03" shape="-95.19,-10.40 -94.84,-7.95 -93.79,-6.20 -92.04,-5.15 -89.59,-4.80"/>
    </edge>
    <edge id=":J1_6" function="internal">
        <lane id=":J1_6_0" index="0" speed="13.89" length="20.80" shape="-95.19,-10.40 -95.20,10.40"/>
        <lane id=":J1_6_1" index="1" speed="13.89" length="20.80" shape="-98.39,-10.40 -98.40,10.40"/>
    </edge>
    <edge id=":J10_0" function="internal">
        <lane id=":J10_0_0" index="0" speed="6.51" length="9.03" shape="195.20,110.40 194.85,107.95 193.80,106.20 192.05,105.15 189.60,104.80"/>
    </edge>
    <edge id=":J10_1" function="internal">
        <lane id=":J10_1_0" index="0" speed="13.89" length="20.80" shape="195.20,110.40 195.20,89.60"/>
        <lane id=":J10_1_1" index="1" speed="13.89" length="20.80" shape="198.40,110.40 198.40,89.60"/>
    </edge>
    <edge id=":J10_3" function="internal">
        <lane id=":J10_3_0" index="0" speed="13.89" length="20.80" shape="204.80,89.60 204.80,110.40"/>
        <lane id=":J10_3_1" index="1" speed="13.89" length="20.80" shape="201.60,89.60 201.60,110.40"/>
    </edge>
    <edge id=":J10_5" function="internal">
        <lane id=":J10_5_0" index="0" speed="9.26" length="5.01" shape="201.60,89.60 200.89,94.56"/>
    </edge>
    <edge id=":J10_8" function="internal">
        <lane id=":J10_8_0" index="0" speed="9.26" length="14.34" shape="200.89,94.56 200.85,94.85 198.60,98.60 194.85,100.85 189.60,101.60"/>
    </edge>
    <edge id=":J10_6" function="internal">
        <lane id=":J10_6_0" index="0" speed="6.51" length="9.03" shape="189.60,95.20 192.05,94.85 193.80,93.80 194.85,92.05 195.20,89.60"/>
    </edge>
    <edge id=":J10_7" function="internal">
        <lane id=":J10_7_0" index="0" speed="9.26" length="19.35" shape="189.60,98.40 194.85,99.15 198.60,101.40 200.85,105.15 201.60,110.40"/>
    </edge>
    <edge id=":J11_0" function="internal">
        <lane id=":J11_0_0" index="0" speed="8.96" length="18.06" shape="204.80,193.60 204.10,198.50 202.00,202.00 198.50,204.10 193.60,204.80"/>
        <lane id=":J11_0_1" index="1" speed="7.66" length="12.90" shape="201.60,193.60 201.10,197.10 199.60,199.60 197.10,201.10 193.60,201.60"/>
    </edge>
    <edge id=":J11_2" function="internal">
        <lane id=":J11_2_0" index="0" speed="3.90" length="2.58" shape="193.60,195.20 194.30,195.10 194.80,194.80 195.10,194.30 195.20,193.60"/>
        <lane id=":J11_2_1" index="1" speed="6.08" length="7.74" shape="193.60,198.40 195.70,198.10 197.20,197.20 198.10,195.70 198.40,193.60"/>
    </edge>
    <edge id=":J12_0" function="internal">
        <lane id=":J12_0_0" index="0" speed="8.96" length="18.05" shape="-104.71,-93.61 -104.00,-98.51 -101.90,-102.00 -98.40,-104.10 -93.51,-104.80"/>
        <lane id=":J12_0_1" index="1" speed="7.66" length="12.89" shape="-101.51,-93.61 -101.00,-97.10 -99.50,-99.60 -97.00,-101.10 -93.51,-101.60"/>
    </edge>
    <edge id=":J12_2" function="internal">
        <lane id=":J12_2_0" index="0" speed="3.90" length="2.58" shape="-93.51,-95.20 -94.21,-95.10 -94.71,-94.80 -95.01,-94.30 -95.11,-93.60"/>
        <lane id=":J12_2_1" index="1" speed="5.21" length="5.42" shape="-93.51,-95.20 -95.61,-95.10 -97.11,-94.80 -98.01,-94.30 -98.31,-93.60"/>
    </edge>
    <edge id=":J12_4" function="internal">
        <lane id=":J12_4_0" index="0" speed="5.58" length="3.29" shape="-93.51,-95.20 -97.11,-97.60 -97.53,-98.44"/>
        <lane id=":J12_4_1" index="1" speed="3.65" length="3.29" shape="-93.51,-98.40 -94.59,-99.12"/>
    </edge>
    <edge id=":J12_6" function="internal">
        <lane id=":J12_6_0" index="0" speed="5.58" length="8.75" shape="-97.53,-98.44 -98.31,-100.00 -97.11,-102.40 -93.51,-104.80"/>
    </edge>
    <edge id=":J12_7" function="internal">
        <lane id=":J12_7_0" index="0" speed="3.65" length="3.37" shape="-94.59,-99.12 -94.71,-99.20 -95.11,-100.00 -94.71,-100.80 -93.51,-101.60"/>
    </edge>
    <edge id=":J13_0" function="internal">
        <lane id=":J13_0_0" index="0" speed="6.51" length="9.03" shape="-4.80,-89.60 -5.15,-92.05 -6.20,-93.80 -7.95,-94.85 -10.40,-95.20"/>
    </edge>
    <edge id=":J13_1" function="internal">
        <lane id=":J13_1_0" index="0" speed="9.26" length="19.35" shape="-1.60,-89.60 -0.85,-94.85 1.40,-98.60 5.15,-100.85 10.40,-101.60"/>
    </edge>
    <edge id=":J13_2" function="internal">
        <lane id=":J13_2_0" index="0" speed="6.51" length="9.03" shape="10.40,-95.20 7.95,-94.85 6.20,-93.80 5.15,-92.05 4.80,-89.60"/>
    </edge>
    <edge id=":J13_3" function="internal">
        <lane id=":J13_3_0" index="0" speed="13.89" length="20.80" shape="10.40,-95.20 -10.40,-95.20"/>
        <lane id=":J13_3_1" index="1" speed="13.89" length="20.80" shape="10.40,-98.40 -10.40,-98.40"/>
    </edge>
    <edge id=":J13_5" function="internal">
        <lane id=":J13_5_0" index="0" speed="13.89" length="20.80" shape="-10.40,-104.80 10.40,-104.80"/>
        <lane id=":J13_5_1" index="1" speed="13.89" length="20.80" shape="-10.40,-101.60 10.40,-101.60"/>
    </edge>
    <edge id=":J13_7" function="internal">
        <lane id=":J13_7_0" index="0" speed="9.26" length="5.01" shape="-10.40,-101.60 -5.44,-100.89"/>
    </edge>
    <edge id=":J13_8" function="internal">
        <lane id=":J13_8_0" index="0" speed="9.26" length="14.34" shape="-5.44,-100.89 -5.15,-100.85 -1.40,-98.60 0.85,-94.85 1.60,-89.60"/>
    </edge>
    <edge id=":J14_0" function="internal">
        <lane id=":J14_0_0" index="0" speed="6.51" length="9.04" shape="95.21,-89.59 94.86,-92.04 93.81,-93.80 92.06,-94.85 89.61,-95.20"/>
    </edge>
    <edge id=":J14_1" function="internal">
        <lane id=":J14_1_0" index="0" speed="9.26" length="19.36" shape="98.41,-89.59 99.16,-94.85 101.40,-98.60 105.15,-100.85 110.41,-101.60"/>
    </edge>
    <edge id=":J14_2" function="internal">
        <lane id=":J14_2_0" index="0" speed="6.51" length="9.03" shape="110.41,-95.20 107.96,-94.85 106.21,-93.80 105.16,-92.05 104.81,-89.60"/>
    </edge>
    <edge id=":J14_3" function="internal">
        <lane id=":J14_3_0" index="0" speed="13.89" length="20.80" shape="110.41,-95.20 89.61,-95.20"/>
        <lane id=":J14_3_1" index="1" speed="13.89" length="20.80" shape="110.41,-98.40 89.61,-98.40"/>
    </edge>
    <edge id=":J14_5" function="internal">
        <lane id=":J14_5_0" index="0" speed="13.89" length="20.80" shape="89.61,-104.80 110.41,-104.80"/>
        <lane id=":J14_5_1" index="1" speed="13.89" length="20.80" shape="89.61,-101.60 110.41,-101.60"/>
    </edge>
    <edge id=":J14_7" function="internal">
        <lane id=":J14_7_0" index="0" speed="9.26" length="5.01" shape="89.61,-101.60 94.57,-100.89"/>
    </edge>
    <edge id=":J14_8" function="internal">
        <lane id=":J14_8_0" index="0" speed="9.26" length="14.35" shape="94.57,-100.89 94.85,-100.85 98.60,-98.60 100.86,-94.85 101.61,-89.60"/>
    </edge>
    <edge id=":J15_0" function="internal">
        <lane id=":J15_0_0" index="0" speed="3.90" length="2.58" shape="195.21,-93.60 195.11,-94.30 194.81,-94.80 194.31,-95.10 193.61,-95.20"/>
        <lane id=":J15_0_1" index="1" speed="6.08" length="7.74" shape="198.41,-93.60 198.10,-95.70 197.20,-97.20 195.70,-98.10 193.61,-98.40"/>
    </edge>
    <edge id=":J15_2" function="internal">
        <lane id=":J15_2_0" index="0" speed="8.96" length="18.05" shape="193.61,-104.80 198.50,-104.10 202.00,-102.00 204.10,-98.51 204.81,-93.61"/>
        <lane id=":J15_2_1" index="1" speed="7.66" length="12.89" shape="193.61,-101.60 197.10,-101.10 199.60,-99.60 201.10,-97.10 201.61,-93.61"/>
    </edge>
    <edge id=":J2_0" function="internal">
        <lane id=":J2_0_0" index="0" speed="6.51" length="9.03" shape="195.20,10.40 194.85,7.95 193.80,6.20 192.05,5.15 189.60,4.80"/>
    </edge>
    <edge id=":J2_1" function="internal">
        <lane id=":J2_1_0" index="0" speed="13.89" length="20.80" shape="195.20,10.40 195.29,-10.40"/>
        <lane id=":J2_1_1" index="1" speed="13.89" length="20.80" shape="198.40,10.40 198.49,-10.40"/>
    </edge>
    <edge id=":J2_3" function="internal">
        <lane id=":J2_3_0" index="0" speed="13.89" length="20.81" shape="204.89,-10.41 204.80,10.40"/>
        <lane id=":J2_3_1" index="1" speed="13.89" length="20.81" shape="201.69,-10.41 201.60,10.40"/>
    </edge>
    <edge id=":J2_5" function="internal">
        <lane id=":J2_5_0" index="0" speed="9.27" length="5.13" shape="201.69,-10.41 200.96,-5.33"/>
    </edge>
    <edge id=":J2_8" function="internal">
        <lane id=":J2_8_0" index="0" speed="9.27" length="14.30" shape="200.96,-5.33 200.94,-5.15 198.67,-1.40 194.89,0.85 189.60,1.60"/>
    </edge>
    <edge id=":J2_6" function="internal">
        <lane id=":J2_6_0" index="0" speed="6.53" length="9.11" shape="189.60,-4.80 192.09,-5.15 193.87,-6.20 194.94,-7.95 195.29,-10.40"/>
    </edge>
    <edge id=":J2_7" function="internal">
        <lane id=":J2_7_0" index="0" speed="9.26" length="19.35" shape="189.60,-1.60 194.85,-0.85 198.60,1.40 200.85,5.15 201.60,10.40"/>
    </edge>
    <edge id=":J3_0" function="internal">
        <lane id=":J3_0_0" index="0" speed="6.51" length="9.05" shape="-4.79,110.41 -5.14,107.96 -6.20,106.20 -7.95,105.15 -10.40,104.80"/>
    </edge>
    <edge id=":J3_1" function="internal">
        <lane id=":J3_1_0" index="0" speed="13.89" length="20.81" shape="-4.79,110.41 -4.80,89.60"/>
        <lane id=":J3_1_1" index="1" speed="13.89" length="20.81" shape="-1.59,110.41 -1.60,89.60"/>
    </edge>
    <edge id=":J3_3" function="internal">
        <lane id=":J3_3_0" index="0" speed="9.26" length="5.03" shape="-1.59,110.41 -0.88,105.43"/>
    </edge>
    <edge id=":J3_17" function="internal">
        <lane id=":J3_17_0" index="0" speed="9.26" length="14.33" shape="-0.88,105.43 -0.84,105.15 1.40,101.40 5.15,99.15 10.41,98.40"/>
    </edge>
    <edge id=":J3_4" function="internal">
        <lane id=":J3_4_0" index="0" speed="6.51" length="9.03" shape="10.41,104.80 7.96,105.15 6.21,106.20 5.16,107.95 4.81,110.40"/>
    </edge>
    <edge id=":J3_5" function="internal">
        <lane id=":J3_5_0" index="0" speed="13.89" length="20.81" shape="10.41,104.80 -10.40,104.80"/>
        <lane id=":J3_5_1" index="1" speed="13.89" length="20.81" shape="10.41,101.60 -10.40,101.60"/>
    </edge>
    <edge id=":J3_7" function="internal">
        <lane id=":J3_7_0" index="0" speed="9.26" length="5.02" shape="10.41,101.60 5.44,100.89"/>
    </edge>
    <edge id=":J3_18" function="internal">
        <lane id=":J3_18_0" index="0" speed="9.26" length="14.34" shape="5.44,100.89 5.15,100.85 1.40,98.60 -0.85,94.85 -1.60,89.60"/>
    </edge>
    <edge id=":J3_8" function="internal">
        <lane id=":J3_8_0" index="0" speed="6.51" length="9.04" shape="4.80,89.60 5.15,92.05 6.20,93.80 7.95,94.85 10.41,95.20"/>
    </edge>
    <edge id=":J3_9" function="internal">
        <lane id=":J3_9_0" index="0" speed="13.89" length="20.80" shape="4.80,89.60 4.81,110.40"/>
        <lane id=":J3_9_1" index="1" speed="13.89" length="20.80" shape="1.60,89.60 1.61,110.40"/>
    </edge>
    <edge id=":J3_11" function="internal">
        <lane id=":J3_11_0" index="0" speed="9.26" length="5.00" shape="1.60,89.60 0.89,94.55"/>
    </edge>
    <edge id=":J3_12" function="internal">
        <lane id=":J3_12_0" index="0" speed="3.65" length="1.44" shape="1.60,89.60 0.80,90.80"/>
    </edge>
    <edge id=":J3_19" function="internal">
        <lane id=":J3_19_0" index="0" speed="9.26" length="14.36" shape="0.89,94.55 0.85,94.85 -1.40,98.60 -5.15,100.85 -10.40,101.60"/>
    </edge>
    <edge id=":J3_20" function="internal">
        <lane id=":J3_20_0" index="0" speed="3.65" length="3.23" shape="0.80,90.80 0.00,91.20 -0.80,90.80 -1.60,89.60"/>
    </edge>
    <edge id=":J3_13" function="internal">
        <lane id=":J3_13_0" index="0" speed="6.51" length="9.03" shape="-10.40,95.20 -7.95,94.85 -6.20,93.80 -5.15,92.05 -4.80,89.60"/>
    </edge>
    <edge id=":J3_14" function="internal">
        <lane id=":J3_14_0" index="0" speed="13.89" length="20.81" shape="-10.40,95.20 10.41,95.20"/>
        <lane id=":J3_14_1" index="1" speed="13.89" length="20.81" shape="-10.40,98.40 10.41,98.40"/>
    </edge>
    <edge id=":J3_16" function="internal">
        <lane id=":J3_16_0" index="0" speed="9.26" length="5.01" shape="-10.40,98.40 -5.44,99.11"/>
    </edge>
    <edge id=":J3_21" function="internal">
        <lane id=":J3_21_0" index="0" speed="9.26" length="14.35" shape="-5.44,99.11 -5.15,99.15 -1.40,101.40 0.86,105.15 1.61,110.40"/>
    </edge>
    <edge id=":J4_0" function="internal">
        <lane id=":J4_0_0" index="0" speed="6.51" length="9.03" shape="95.20,110.40 94.85,107.95 93.80,106.20 92.05,105.15 89.60,104.80"/>
    </edge>
    <edge id=":J4_1" function="internal">
        <lane id=":J4_1_0" index="0" speed="13.89" length="20.80" shape="95.20,110.40 95.20,89.60"/>
        <lane id=":J4_1_1" index="1" speed="13.89" length="20.80" shape="98.40,110.40 98.40,89.60"/>
    </edge>
    <edge id=":J4_3" function="internal">
        <lane id=":J4_3_0" index="0" speed="9.26" length="5.01" shape="98.40,110.40 99.11,105.44"/>
    </edge>
    <edge id=":J4_16" function="internal">
        <lane id=":J4_16_0" index="0" speed="9.26" length="14.34" shape="99.11,105.44 99.15,105.15 101.40,101.40 105.15,99.15 110.40,98.40"/>
    </edge>
    <edge id=":J4_4" function="internal">
        <lane id=":J4_4_0" index="0" speed="6.51" length="9.03" shape="110.40,104.80 107.95,105.15 106.20,106.20 105.15,107.95 104.80,110.40"/>
    </edge>
    <edge id=":J4_5" function="internal">
        <lane id=":J4_5_0" index="0" speed="13.89" length="20.80" shape="110.40,104.80 89.60,104.80"/>
        <lane id=":J4_5_1" index="1" speed="13.89" length="20.80" shape="110.40,101.60 89.60,101.60"/>
    </edge>
    <edge id=":J4_7" function="internal">
        <lane id=":J4_7_0" index="0" speed="9.26" length="5.01" shape="110.40,101.60 105.44,100.89"/>
    </edge>
    <edge id=":J4_17" function="internal">
        <lane id=":J4_17_0" index="0" speed="9.26" length="14.34" shape="105.44,100.89 105.15,100.85 101.40,98.60 99.15,94.85 98.40,89.60"/>
    </edge>
    <edge id=":J4_8" function="internal">
        <lane id=":J4_8_0" index="0" speed="6.51" length="9.03" shape="104.80,89.60 105.15,92.05 106.20,93.80 107.95,94.85 110.40,95.20"/>
    </edge>
    <edge id=":J4_9" function="internal">
        <lane id=":J4_9_0" index="0" speed="13.89" length="20.80" shape="104.80,89.60 104.80,110.40"/>
        <lane id=":J4_9_1" index="1" speed="13.89" length="20.80" shape="101.60,89.60 101.60,110.40"/>
    </edge>
    <edge id=":J4_11" function="internal">
        <lane id=":J4_11_0" index="0" speed="9.26" length="5.01" shape="101.60,89.60 100.89,94.56"/>
    </edge>
    <edge id=":J4_18" function="internal">
        <lane id=":J4_18_0" index="0" speed="9.26" length="14.34" shape="100.89,94.56 100.85,94.85 98.60,98.60 94.85,100.85 89.60,101.60"/>
    </edge>
    <edge id=":J4_12" function="internal">
        <lane id=":J4_12_0" index="0" speed="6.51" length="9.03" shape="89.60,95.20 92.05,94.85 93.80,93.80 94.85,92.05 95.20,89.60"/>
    </edge>
    <edge id=":J4_13" function="internal">
        <lane id=":J4_13_0" index="0" speed="13.89" length="20.80" shape="89.60,95.20 110.40,95.20"/>
        <lane id=":J4_13_1" index="1" speed="13.89" length="20.80" shape="89.60,98.40 110.40,98.40"/>
    </edge>
    <edge id=":J4_15" function="internal">
        <lane id=":J4_15_0" index="0" speed="9.26" length="5.01" shape="89.60,98.40 94.56,99.11"/>
    </edge>
    <edge id=":J4_19" function="internal">
        <lane id=":J4_19_0" index="0" speed="9.26" length="14.34" shape="94.56,99.11 94.85,99.15 98.60,101.40 100.85,105.15 101.60,110.40"/>
    </edge>
    <edge id=":J5_0" function="internal">
        <lane id=":J5_0_0" index="0" speed="6.51" length="9.03" shape="95.20,10.40 94.85,7.95 93.80,6.20 92.05,5.15 89.60,4.80"/>
    </edge>
    <edge id=":J5_1" function="internal">
        <lane id=":J5_1_0" index="0" speed="13.89" length="20.80" shape="95.20,10.40 95.29,-10.40"/>
        <lane id=":J5_1_1" index="1" speed="13.89" length="20.80" shape="98.40,10.40 98.49,-10.40"/>
    </edge>
    <edge id=":J5_3" function="internal">
        <lane id=":J5_3_0" index="0" speed="9.28" length="5.12" shape="98.40,10.40 99.13,5.33"/>
    </edge>
    <edge id=":J5_16" function="internal">
        <lane id=":J5_16_0" index="0" speed="9.28" length="14.31" shape="99.13,5.33 99.16,5.15 101.42,1.40 105.20,-0.85 110.49,-1.60"/>
    </edge>
    <edge id=":J5_4" function="internal">
        <lane id=":J5_4_0" index="0" speed="6.53" length="9.11" shape="110.49,4.80 108.00,5.15 106.22,6.20 105.16,7.95 104.80,10.40"/>
    </edge>
    <edge id=":J5_5" function="internal">
        <lane id=":J5_5_0" index="0" speed="13.89" length="20.89" shape="110.49,4.80 89.60,4.80"/>
        <lane id=":J5_5_1" index="1" speed="13.89" length="20.89" shape="110.49,1.60 89.60,1.60"/>
    </edge>
    <edge id=":J5_7" function="internal">
        <lane id=":J5_7_0" index="0" speed="9.26" length="5.01" shape="110.49,1.60 105.53,0.89"/>
    </edge>
    <edge id=":J5_17" function="internal">
        <lane id=":J5_17_0" index="0" speed="9.26" length="14.35" shape="105.53,0.89 105.25,0.85 101.50,-1.40 99.24,-5.15 98.49,-10.40"/>
    </edge>
    <edge id=":J5_8" function="internal">
        <lane id=":J5_8_0" index="0" speed="6.51" length="9.04" shape="104.89,-10.41 105.24,-7.96 106.29,-6.20 108.04,-5.15 110.49,-4.80"/>
    </edge>
    <edge id=":J5_9" function="internal">
        <lane id=":J5_9_0" index="0" speed="13.89" length="20.81" shape="104.89,-10.41 104.80,10.40"/>
        <lane id=":J5_9_1" index="1" speed="13.89" length="20.81" shape="101.69,-10.41 101.60,10.40"/>
    </edge>
    <edge id=":J5_11" function="internal">
        <lane id=":J5_11_0" index="0" speed="9.27" length="5.13" shape="101.69,-10.41 100.96,-5.33"/>
    </edge>
    <edge id=":J5_18" function="internal">
        <lane id=":J5_18_0" index="0" speed="9.27" length="14.30" shape="100.96,-5.33 100.94,-5.15 98.67,-1.40 94.89,0.85 89.60,1.60"/>
    </edge>
    <edge id=":J5_12" function="internal">
        <lane id=":J5_12_0" index="0" speed="6.53" length="9.11" shape="89.60,-4.80 92.09,-5.15 93.87,-6.20 94.94,-7.95 95.29,-10.40"/>
    </edge>
    <edge id=":J5_13" function="internal">
        <lane id=":J5_13_0" index="0" speed="13.89" length="20.89" shape="89.60,-4.80 110.49,-4.80"/>
        <lane id=":J5_13_1" index="1" speed="13.89" length="20.89" shape="89.60,-1.60 110.49,-1.60"/>
    </edge>
    <edge id=":J5_15" function="internal">
        <lane id=":J5_15_0" index="0" speed="9.26" length="5.01" shape="89.60,-1.60 94.56,-0.89"/>
    </edge>
    <edge id=":J5_19" function="internal">
        <lane id=":J5_19_0" index="0" speed="9.26" length="14.34" shape="94.56,-0.89 94.85,-0.85 98.60,1.40 100.85,5.15 101.60,10.40"/>
    </edge>
    <edge id=":J6_0" function="internal">
        <lane id=":J6_0_0" index="0" speed="6.51" length="9.03" shape="-4.80,10.40 -5.15,7.95 -6.20,6.20 -7.95,5.15 -10.40,4.80"/>
    </edge>
    <edge id=":J6_1" function="internal">
        <lane id=":J6_1_0" index="0" speed="13.89" length="20.80" shape="-4.80,10.40 -4.80,-10.40"/>
        <lane id=":J6_1_1" index="1" speed="13.89" length="20.80" shape="-1.60,10.40 -1.60,-10.40"/>
    </edge>
    <edge id=":J6_3" function="internal">
        <lane id=":J6_3_0" index="0" speed="9.26" length="5.01" shape="-1.60,10.40 -0.89,5.44"/>
    </edge>
    <edge id=":J6_16" function="internal">
        <lane id=":J6_16_0" index="0" speed="9.26" length="14.34" shape="-0.89,5.44 -0.85,5.15 1.40,1.40 5.15,-0.85 10.40,-1.60"/>
    </edge>
    <edge id=":J6_4" function="internal">
        <lane id=":J6_4_0" index="0" speed="6.51" length="9.03" shape="10.40,4.80 7.95,5.15 6.20,6.20 5.15,7.95 4.80,10.40"/>
    </edge>
    <edge id=":J6_5" function="internal">
        <lane id=":J6_5_0" index="0" speed="13.89" length="20.80" shape="10.40,4.80 -10.40,4.80"/>
        <lane id=":J6_5_1" index="1" speed="13.89" length="20.80" shape="10.40,1.60 -10.40,1.60"/>
    </edge>
    <edge id=":J6_7" function="internal">
        <lane id=":J6_7_0" index="0" speed="9.26" length="5.01" shape="10.40,1.60 5.44,0.89"/>
    </edge>
    <edge id=":J6_17" function="internal">
        <lane id=":J6_17_0" index="0" speed="9.26" length="14.34" shape="5.44,0.89 5.15,0.85 1.40,-1.40 -0.85,-5.15 -1.60,-10.40"/>
    </edge>
    <edge id=":J6_8" function="internal">
        <lane id=":J6_8_0" index="0" speed="6.51" length="9.03" shape="4.80,-10.40 5.15,-7.95 6.20,-6.20 7.95,-5.15 10.40,-4.80"/>
    </edge>
    <edge id=":J6_9" function="internal">
        <lane id=":J6_9_0" index="0" speed="13.89" length="20.80" shape="4.80,-10.40 4.80,10.40"/>
        <lane id=":J6_9_1" index="1" speed="13.89" length="20.80" shape="1.60,-10.40 1.60,10.40"/>
    </edge>
    <edge id=":J6_11" function="internal">
        <lane id=":J6_11_0" index="0" speed="9.26" length="5.01" shape="1.60,-10.40 0.89,-5.44"/>
    </edge>
    <edge id=":J6_18" function="internal">
        <lane id=":J6_18_0" index="0" speed="9.26" length="14.34" shape="0.89,-5.44 0.85,-5.15 -1.40,-1.40 -5.15,0.85 -10.40,1.60"/>
    </edge>
    <edge id=":J6_12" function="internal">
        <lane id=":J6_12_0" index="0" speed="6.51" length="9.03" shape="-10.40,-4.80 -7.95,-5.15 -6.20,-6.20 -5.15,-7.95 -4.80,-10.40"/>
    </edge>
    <edge id=":J6_13" function="internal">
        <lane id=":J6_13_0" index="0" speed="13.89" length="20.80" shape="-10.40,-4.80 10.40,-4.80"/>
        <lane id=":J6_13_1" index="1" speed="13.89" length="20.80" shape="-10.40,-1.60 10.40,-1.60"/>
    </edge>
    <edge id=":J6_15" function="internal">
        <lane id=":J6_15_0" index="0" speed="9.26" length="5.01" shape="-10.40,-1.60 -5.44,-0.89"/>
    </edge>
    <edge id=":J6_19" function="internal">
        <lane id=":J6_19_0" index="0" speed="9.26" length="14.34" shape="-5.44,-0.89 -5.15,-0.85 -1.40,1.40 0.85,5.15 1.60,10.40"/>
    </edge>
    <edge id=":J7_0" function="internal">
        <lane id=":J7_0_0" index="0" speed="13.89" length="20.80" shape="10.49,204.80 -10.31,204.80"/>
        <lane id=":J7_0_1" index="1" speed="13.89" length="20.80" shape="10.49,201.60 -10.31,201.60"/>
    </edge>
    <edge id=":J7_2" function="internal">
        <lane id=":J7_2_0" index="0" speed="9.26" length="5.01" shape="10.49,201.60 5.53,200.89"/>
    </edge>
    <edge id=":J7_8" function="internal">
        <lane id=":J7_8_0" index="0" speed="9.26" length="14.35" shape="5.53,200.89 5.25,200.85 1.50,198.60 -0.76,194.85 -1.51,189.60"/>
    </edge>
    <edge id=":J7_3" function="internal">
        <lane id=":J7_3_0" index="0" speed="6.51" length="9.04" shape="4.89,189.59 5.24,192.04 6.29,193.80 8.04,194.85 10.49,195.20"/>
    </edge>
    <edge id=":J7_4" function="internal">
        <lane id=":J7_4_0" index="0" speed="9.26" length="19.36" shape="1.69,189.59 0.94,194.85 -1.30,198.60 -5.05,200.85 -10.31,201.60"/>
    </edge>
    <edge id=":J7_5" function="internal">
        <lane id=":J7_5_0" index="0" speed="6.51" length="9.03" shape="-10.31,195.20 -7.86,194.85 -6.11,193.80 -5.06,192.05 -4.71,189.60"/>
    </edge>
    <edge id=":J7_6" function="internal">
        <lane id=":J7_6_0" index="0" speed="13.89" length="20.80" shape="-10.31,195.20 10.49,195.20"/>
        <lane id=":J7_6_1" index="1" speed="13.89" length="20.80" shape="-10.31,198.40 10.49,198.40"/>
    </edge>
    <edge id=":J8_0" function="internal">
        <lane id=":J8_0_0" index="0" speed="13.89" length="20.80" shape="110.40,204.80 89.60,204.80"/>
        <lane id=":J8_0_1" index="1" speed="13.89" length="20.80" shape="110.40,201.60 89.60,201.60"/>
    </edge>
    <edge id=":J8_2" function="internal">
        <lane id=":J8_2_0" index="0" speed="9.26" length="5.01" shape="110.40,201.60 105.44,200.89"/>
    </edge>
    <edge id=":J8_8" function="internal">
        <lane id=":J8_8_0" index="0" speed="9.26" length="14.34" shape="105.44,200.89 105.15,200.85 101.40,198.60 99.15,194.85 98.40,189.60"/>
    </edge>
    <edge id=":J8_3" function="internal">
        <lane id=":J8_3_0" index="0" speed="6.51" length="9.03" shape="104.80,189.60 105.15,192.05 106.20,193.80 107.95,194.85 110.40,195.20"/>
    </edge>
    <edge id=":J8_4" function="internal">
        <lane id=":J8_4_0" index="0" speed="9.26" length="19.35" shape="101.60,189.60 100.85,194.85 98.60,198.60 94.85,200.85 89.60,201.60"/>
    </edge>
    <edge id=":J8_5" function="internal">
        <lane id=":J8_5_0" index="0" speed="6.51" length="9.03" shape="89.60,195.20 92.05,194.85 93.80,193.80 94.85,192.05 95.20,189.60"/>
    </edge>
    <edge id=":J8_6" function="internal">
        <lane id=":J8_6_0" index="0" speed="13.89" length="20.80" shape="89.60,195.20 110.40,195.20"/>
        <lane id=":J8_6_1" index="1" speed="13.89" length="20.80" shape="89.60,198.40 110.40,198.40"/>
    </edge>
    <edge id=":J9_0" function="internal">
        <lane id=":J9_0_0" index="0" speed="13.89" length="20.80" shape="-104.80,110.40 -104.80,89.60"/>
        <lane id=":J9_0_1" index="1" speed="13.89" length="20.80" shape="-101.60,110.40 -101.60,89.60"/>
    </edge>
    <edge id=":J9_2" function="internal">
        <lane id=":J9_2_0" index="0" speed="9.26" length="5.01" shape="-101.60,110.40 -100.89,105.44"/>
    </edge>
    <edge id=":J9_8" function="internal">
        <lane id=":J9_8_0" index="0" speed="9.26" length="14.34" shape="-100.89,105.44 -100.85,105.15 -98.60,101.40 -94.85,99.15 -89.60,98.40"/>
    </edge>
    <edge id=":J9_3" function="internal">
        <lane id=":J9_3_0" index="0" speed="6.51" length="9.03" shape="-89.60,104.80 -92.05,105.15 -93.80,106.20 -94.85,107.95 -95.20,110.40"/>
    </edge>
    <edge id=":J9_4" function="internal">
        <lane id=":J9_4_0" index="0" speed="9.26" length="19.35" shape="-89.60,101.60 -94.85,100.85 -98.60,98.60 -100.85,94.85 -101.60,89.60"/>
    </edge>
    <edge id=":J9_5" function="internal">
        <lane id=":J9_5_0" index="0" speed="6.51" length="9.03" shape="-95.20,89.60 -94.85,92.05 -93.80,93.80 -92.05,94.85 -89.60,95.20"/>
    </edge>
    <edge id=":J9_6" function="internal">
        <lane id=":J9_6_0" index="0" speed="13.89" length="20.80" shape="-95.20,89.60 -95.20,110.40"/>
        <lane id=":J9_6_1" index="1" speed="13.89" length="20.80" shape="-98.40,89.60 -98.40,110.40"/>
    </edge>

    <edge id="-E0" from="J0" to="J7" priority="-1">
        <lane id="-E0_0" index="0" speed="13.89" length="83.29" shape="-93.60,195.20 -10.31,195.20"/>
        <lane id="-E0_1" index="1" speed="13.89" length="83.29" shape="-93.60,198.40 -10.31,198.40"/>
    </edge>
    <edge id="-E1" from="J9" to="J0" priority="-1">
        <lane id="-E1_0" index="0" speed="13.89" length="83.20" shape="-95.20,110.40 -95.20,193.60"/>